Version 4.1
SHEET 1 1648 980
WIRE -336 -640 -608 -640
WIRE 320 -640 -336 -640
WIRE 384 -464 128 -464
WIRE 672 -464 384 -464
WIRE -336 -448 -336 -640
WIRE 384 -432 384 -464
WIRE -336 -288 -336 -368
WIRE 384 -288 384 -352
WIRE 672 -240 672 -464
WIRE 672 -240 576 -240
WIRE 752 -240 672 -240
WIRE 128 -224 128 -464
WIRE 128 -224 64 -224
WIRE 208 -224 128 -224
WIRE -464 -192 -704 -192
WIRE -224 -192 -464 -192
WIRE 576 -192 576 -224
WIRE 752 -192 752 -224
WIRE 976 -192 784 -192
WIRE 64 -176 64 -208
WIRE 208 -176 208 -208
WIRE 528 -160 496 -160
WIRE -224 -144 -224 -192
WIRE -160 -144 -224 -144
WIRE 16 -144 -160 -144
WIRE 320 -144 320 -640
WIRE 320 -144 256 -144
WIRE 496 -144 496 -160
WIRE 496 -144 320 -144
WIRE 640 -144 576 -144
WIRE 752 -144 640 -144
WIRE 176 -128 64 -128
WIRE 208 -128 176 -128
WIRE -704 -96 -704 -192
WIRE 176 -80 176 -128
WIRE 320 -80 176 -80
WIRE 640 -48 640 -144
WIRE 176 -32 176 -80
WIRE 608 0 416 0
WIRE 640 0 640 -32
WIRE 176 16 176 -16
WIRE 976 32 976 -192
WIRE 1184 32 976 32
WIRE 320 80 320 -80
WIRE -704 96 -704 -16
WIRE 416 96 416 0
WIRE 176 160 176 64
WIRE 176 160 80 160
WIRE 224 160 176 160
WIRE -464 176 -464 -192
WIRE -384 176 -464 176
WIRE -256 176 -320 176
WIRE 640 176 640 48
WIRE 640 176 512 176
WIRE 736 176 640 176
WIRE 224 192 224 160
WIRE 320 192 320 80
WIRE 320 192 224 192
WIRE 224 224 224 192
WIRE 976 224 976 32
WIRE 976 224 768 224
WIRE -160 240 -160 -144
WIRE 32 240 -160 240
WIRE 80 240 80 208
WIRE 512 240 512 176
WIRE 736 256 736 224
WIRE 416 288 416 96
WIRE 480 288 416 288
WIRE 80 304 80 256
WIRE 224 304 224 272
WIRE 512 320 512 288
WIRE 736 336 736 272
WIRE -608 384 -608 -640
WIRE -48 384 -608 384
WIRE 32 384 -48 384
WIRE 80 384 80 352
WIRE 144 400 80 400
WIRE 224 400 224 320
WIRE 224 400 144 400
WIRE 736 416 736 384
WIRE 1024 416 784 416
WIRE 512 432 512 336
WIRE 640 432 512 432
WIRE 736 432 640 432
WIRE 144 448 144 400
WIRE 640 496 640 432
WIRE -256 720 -256 176
WIRE 1184 720 1184 32
WIRE 1184 720 -256 720
WIRE -48 976 -48 384
WIRE 1024 976 1024 416
WIRE 1024 976 -48 976
FLAG 144 448 0
FLAG 640 496 0
FLAG 384 -288 0
FLAG -368 -416 CLK
IOPIN -368 -416 In
FLAG -736 -48 D
IOPIN -736 -48 In
FLAG -336 -288 0
FLAG -704 96 0
FLAG 416 96 ~Q
IOPIN 416 96 Out
FLAG 320 80 Q
IOPIN 320 80 Out
SYMBOL nmos4 32 160 R0
SYMATTR InstName M1
SYMBOL nmos4 32 304 R0
SYMATTR InstName M2
SYMBOL nmos4 272 224 M0
SYMATTR InstName M3
SYMBOL nmos4 784 176 M0
SYMATTR InstName M4
SYMBOL nmos4 784 336 M0
SYMATTR InstName M5
SYMBOL nmos4 464 240 R0
SYMATTR InstName M6
SYMBOL pmos4 224 -32 M0
SYMATTR InstName M7
SYMBOL pmos4 592 -48 R0
SYMATTR InstName M8
SYMBOL pmos4 16 -224 R0
SYMATTR InstName M9
SYMBOL pmos4 256 -224 M0
SYMATTR InstName M10
SYMBOL pmos4 800 -240 M0
SYMATTR InstName M11
SYMBOL pmos4 528 -240 R0
SYMATTR InstName M12
SYMBOL voltage 384 -448 R0
WINDOW 123 0 0 Left 0
WINDOW 39 0 0 Left 0
SYMATTR InstName V1
SYMATTR Value 1.8
SYMBOL voltage -704 -112 R0
WINDOW 123 0 0 Left 0
WINDOW 39 0 0 Left 0
SYMATTR InstName V2
SYMATTR Value PULSE(0 1.8 0 1n 1n 100n 200n)
SYMBOL voltage -336 -464 R0
WINDOW 123 0 0 Left 0
WINDOW 39 0 0 Left 0
SYMATTR InstName V3
SYMATTR Value PULSE(0 1.8 0 1n 1n 50n 100n)
SYMBOL Digital\\inv -384 112 R0
SYMATTR InstName A1
TEXT 1280 -64 Left 2 ;.model nmos nmos (Vto=0.7)
TEXT 1296 8 Left 2 ;.model pmos pmos (Vto=-0.7)
TEXT 1408 216 Left 2 !.tran  0 1u
