Version 4.1
SHEET 1 880 724
WIRE 96 16 -144 16
WIRE 208 16 96 16
WIRE 384 16 208 16
WIRE -144 48 -144 16
WIRE 96 48 96 16
WIRE 16 80 -80 80
WIRE 256 96 160 96
WIRE -80 112 -80 80
WIRE 16 112 0 112
WIRE 0 144 0 112
WIRE -144 176 -144 128
WIRE 96 176 -32 176
WIRE 384 176 384 16
WIRE 256 208 256 96
WIRE 304 208 256 208
WIRE 736 224 448 224
WIRE -80 240 -80 192
WIRE 304 240 240 240
WIRE 0 256 0 224
WIRE 208 256 208 16
WIRE 208 256 96 256
WIRE -16 320 -128 320
WIRE 96 320 96 256
WIRE -16 352 -16 320
WIRE 16 352 -16 352
WIRE 240 368 240 240
WIRE 240 368 160 368
WIRE 16 384 0 384
WIRE 384 416 384 304
WIRE -128 448 -128 400
WIRE 0 448 0 384
WIRE -32 512 -32 176
WIRE 96 512 96 448
WIRE 96 512 -32 512
WIRE 384 512 384 496
WIRE 400 512 384 512
WIRE 96 544 96 512
WIRE 96 544 80 544
WIRE 400 544 400 512
WIRE 0 576 0 528
WIRE 80 576 80 544
WIRE 80 704 80 656
FLAG -128 448 0
FLAG 0 576 0
FLAG 80 704 0
FLAG 400 544 0
FLAG -144 176 0
FLAG -80 240 0
FLAG 0 256 0
SYMBOL mux 96 96 R0
SYMATTR InstName X1
SYMBOL mux 96 368 R0
SYMATTR InstName X2
SYMBOL mux 384 224 R0
SYMATTR InstName X3
SYMBOL voltage -144 32 R0
WINDOW 123 0 0 Left 0
WINDOW 39 0 0 Left 0
SYMATTR InstName V1
SYMATTR Value 5
SYMBOL voltage -80 96 R0
WINDOW 123 0 0 Left 0
WINDOW 39 0 0 Left 0
SYMATTR InstName V2
SYMATTR Value PULSE(0 5 0.5n 1n 1n 8m 16m)
SYMBOL voltage 0 128 R0
WINDOW 123 0 0 Left 0
WINDOW 39 0 0 Left 0
SYMATTR InstName V3
SYMATTR Value PULSE(0 5 0.5n 1n 1n 4m 8m)
SYMBOL voltage -128 304 R0
WINDOW 123 0 0 Left 0
WINDOW 39 0 0 Left 0
SYMATTR InstName V4
SYMATTR Value PULSE(0 5 0.5n 1n 1n 2m 4m)
SYMBOL voltage 0 432 R0
WINDOW 123 0 0 Left 0
WINDOW 39 0 0 Left 0
SYMATTR InstName V5
SYMATTR Value PULSE(0 5 0.5n 1n 1n 1m 2m)
SYMBOL voltage 80 560 R0
WINDOW 123 0 0 Left 0
WINDOW 39 0 0 Left 0
SYMATTR InstName V6
SYMATTR Value PULSE(0 5 0.5n 1n 1n 8m 16m)
SYMBOL voltage 384 400 R0
WINDOW 123 0 0 Left 0
WINDOW 39 0 0 Left 0
SYMATTR InstName V7
SYMATTR Value PULSE(0 5 0.5n 1n 1n 4m 8m)
TEXT -520 120 Left 2 !.tran 16m
